%RWF=rrs_t_ts.rwf
%NoSave
%chk=rrs_t_ts.chk
%mem=4Gb
%nprocshared=2
#n b3lyp/STO-3G opt=(TS,calcfc,noeigen,Maxstep=15,modredundant) Freq  

rrs ts TRANS CARICO

1 1
 C    -4.827358    -1.936128    -1.536721
 C    -4.157153    -1.252249    -0.611250
 C    -3.331957    -1.937507     0.436682
 C    -4.164168     0.244182    -0.543491
 C    -2.725642     0.825525    -0.637113
 H    -4.748698     0.664439    -1.363044
 H    -4.648850     0.560387     0.381680
 C    -2.140069     0.561602    -2.022908
 H    -1.107507     0.884946    -2.123825
 H    -2.195561    -0.496235    -2.277142
 H    -2.727356     1.105368    -2.760442
 C    -2.892344     2.410159    -0.440749
 C    -1.825578     0.456442     0.540441
 C    -2.380170     0.723785     1.919218
 C    -3.345114     2.882738     0.923429
 C    -2.526133     2.255802     2.056594
 H    -4.403267     2.627031     1.037081
 H    -3.274627     3.969959     0.935536
 H    -1.680214     0.360285     2.668648
 H    -3.340012     0.241168     2.080464
 H    -3.007332     2.465562     3.012715
 H    -1.530242     2.701244     2.079674
 C    -1.037188    -2.061203     1.346912
 N     0.365725    -2.430100     1.151856
 O    -2.690793     3.136439    -1.372426
 O    -0.573329     0.810996     0.470418
 H    -5.423417    -1.432535    -2.290149
 H    -4.814033    -3.020514    -1.564256
 C     1.336550    -1.324327     0.709963
 C     2.765342    -1.777340     1.030612
 C     3.759850    -0.749104     0.551295
 C     4.357359    -0.863798    -0.705404
 C     5.241984     0.103439    -1.171729
 C     5.539482     1.212793    -0.377350
 C     4.948880     1.341590     0.882712
 C     4.068503     0.368063     1.335018
 H     3.618499     0.477772     2.316848
 H     5.191701     2.204004     1.492864
 H     5.700717    -0.004345    -2.149801
 H     4.128152    -1.718080    -1.333662
 O     6.396856     2.195761    -0.773092
 H     6.737939     2.004046    -1.655377
 C     1.105007    -1.213221    -0.828962
 O     1.077789    -2.298438    -1.422993
 O     0.942325    -0.050425    -1.301450
 H    -0.019264     0.622454    -0.392007
 C    -1.833284    -1.587752     0.360194
 H    -3.388426    -3.017474     0.291713
 H    -3.713562    -1.739311     1.441419
 H    -1.415597    -1.590509    -0.641655
 H     0.711725    -2.882950     1.998865
 H    -1.384395    -2.234954     2.356843
 H     1.077210    -0.424118     1.254278
 H     2.858735    -1.922665     2.110373
 H     2.949604    -2.739377     0.546860
 H     0.444429    -3.110523     0.374493

13 47 B
13 47 A

